                                   -HEAVY-   
      U.S. GEOLOGICAL SURVEY MODELING TOOL FOR FORWARD MODELING MICROGRAVITY WITH MODFLOW
                            VERSION 1.0.0 2023-02-25
                    FOR MODFLOW-2005 AND MODFLOW-NWT

 LIST FILE: tran_hvy.lst
                         UNIT    2

 OPENING tran.bas
 FILE TYPE:BAS6   UNIT   13   STATUS:OLD    
 FORMAT:FORMATTED              ACCESS:SEQUENTIAL          

 OPENING tran_none.oc
 FILE TYPE:OC   UNIT   16   STATUS:OLD    
 FORMAT:FORMATTED              ACCESS:SEQUENTIAL          

 OPENING tran.lpf
 FILE TYPE:LPF   UNIT   31   STATUS:OLD    
 FORMAT:FORMATTED              ACCESS:SEQUENTIAL          

 OPENING model1.hvy
 FILE TYPE:HVY   UNIT   14   STATUS:OLD    
 FORMAT:FORMATTED              ACCESS:SEQUENTIAL          

 OPENING tran.dis
 FILE TYPE:DIS   UNIT   11   STATUS:OLD    
 FORMAT:FORMATTED              ACCESS:SEQUENTIAL          

 OPENING tran.zon
 FILE TYPE:ZONE   UNIT   23   STATUS:OLD    
 FORMAT:FORMATTED              ACCESS:SEQUENTIAL          

 OPENING tran.mlt
 FILE TYPE:MULT   UNIT   24   STATUS:OLD    
 FORMAT:FORMATTED              ACCESS:SEQUENTIAL          

 OPENING tran.hds
 FILE TYPE:HEAD   UNIT   51   STATUS:UNKNOWN
 FORMAT:UNFORMATTED            ACCESS:STREAM              

 OPENING tran_hvy.out
 FILE TYPE:DATA   UNIT   81   STATUS:UNKNOWN
 FORMAT:FORMATTED              ACCESS:SEQUENTIAL          

 BAS -- BASIC PACKAGE, VERSION 1.1.5, 9/10/2019 INPUT READ FROM UNIT   13

 MODFLOW was compiled using uniform precision
 Precision of REAL and DOUBLE PRECISION variables:          15

 DISCRETIZATION INPUT DATA READ FROM UNIT   11
 # Discretization file for parent grid
    9 LAYERS       312 ROWS       160 COLUMNS
   79 STRESS PERIOD(S) IN SIMULATION
 MODEL TIME UNIT IS DAYS
 MODEL LENGTH UNIT IS FEET
  Confining bed flag for each layer:
   0   0   0   0   0   0   0   0   0

                     DELR =   1640.42    

                     DELC =   1640.42    

 OPENING FILE ON UNIT   99:
 ../externalfiles/arrays/SURF_elev.arr                                                                                                                                                                   



           TOP ELEVATION OF LAYER 1
 READING ON UNIT   99 WITH FORMAT: (10F8.1)            

 OPENING FILE ON UNIT   99:
 ../externalfiles/arrays/NEWBOT1.arr                                                                                                                                                                     



             MODEL LAYER BOTTOM EL. FOR LAYER   1
 READING ON UNIT   99 WITH FORMAT: (10F8.1)            

 OPENING FILE ON UNIT   99:
 ../externalfiles/arrays/NEWBOT2.arr                                                                                                                                                                     



             MODEL LAYER BOTTOM EL. FOR LAYER   2
 READING ON UNIT   99 WITH FORMAT: (10F8.1)            

 OPENING FILE ON UNIT   99:
 ../externalfiles/arrays/NEWBOT3.arr                                                                                                                                                                     



             MODEL LAYER BOTTOM EL. FOR LAYER   3
 READING ON UNIT   99 WITH FORMAT: (10F8.1)            

 OPENING FILE ON UNIT   99:
 ../externalfiles/arrays/NEWBOT4.arr                                                                                                                                                                     



             MODEL LAYER BOTTOM EL. FOR LAYER   4
 READING ON UNIT   99 WITH FORMAT: (10F8.1)            

 OPENING FILE ON UNIT   99:
 ../externalfiles/arrays/BOT5.arr                                                                                                                                                                        



             MODEL LAYER BOTTOM EL. FOR LAYER   5
 READING ON UNIT   99 WITH FORMAT: (10F8.1)            

 OPENING FILE ON UNIT   99:
 ../externalfiles/arrays/BOT6.arr                                                                                                                                                                        



             MODEL LAYER BOTTOM EL. FOR LAYER   6
 READING ON UNIT   99 WITH FORMAT: (10F8.1)            

 OPENING FILE ON UNIT   99:
 ../externalfiles/arrays/BOT7.arr                                                                                                                                                                        



             MODEL LAYER BOTTOM EL. FOR LAYER   7
 READING ON UNIT   99 WITH FORMAT: (10F8.1)            

 OPENING FILE ON UNIT   99:
 ../externalfiles/arrays/BOT8.arr                                                                                                                                                                        



             MODEL LAYER BOTTOM EL. FOR LAYER   8
 READING ON UNIT   99 WITH FORMAT: (10F8.1)            

 OPENING FILE ON UNIT   99:
 ../externalfiles/arrays/BOT9.arr                                                                                                                                                                        



             MODEL LAYER BOTTOM EL. FOR LAYER   9
 READING ON UNIT   99 WITH FORMAT: (10F8.1)            


 STRESS PERIOD     LENGTH       TIME STEPS     MULTIPLIER FOR DELT    SS FLAG
 ----------------------------------------------------------------------------
        1         0.000000          1                    1.000         SS
        2         1827.000          8                    1.500         TR
        3         1826.000          8                    1.500         TR
        4         1826.000          8                    1.500         TR
        5         1826.000          8                    1.500         TR
        6         1827.000          8                    1.500         TR
        7         1826.000          8                    1.500         TR
        8         1826.000          8                    1.500         TR
        9         1826.000          8                    1.500         TR
       10         1827.000          8                    1.500         TR
       11         1826.000          8                    1.500         TR
       12         1826.000          8                    1.500         TR
       13         1826.000          8                    1.500         TR
       14         1827.000          8                    1.500         TR
       15         1826.000          8                    1.500         TR
       16         1826.000          8                    1.500         TR
       17         365.0000          6                    1.500         TR
       18         366.0000          6                    1.500         TR
       19         365.0000          6                    1.500         TR
       20         365.0000          6                    1.500         TR
       21         365.0000          6                    1.500         TR
       22         366.0000          6                    1.500         TR
       23         365.0000          6                    1.500         TR
       24         365.0000          6                    1.500         TR
       25         365.0000          6                    1.500         TR
       26         366.0000          6                    1.500         TR
       27         365.0000          6                    1.500         TR
       28         365.0000          6                    1.500         TR
       29         365.0000          6                    1.500         TR
       30         366.0000          6                    1.500         TR
       31         365.0000          6                    1.500         TR
       32         74.00000          3                    1.500         TR
       33         230.0000          5                    1.500         TR
       34         135.0000          4                    1.500         TR
       35         230.0000          5                    1.500         TR
       36         136.0000          4                    1.500         TR
       37         230.0000          5                    1.500         TR
       38         135.0000          4                    1.500         TR
       39         230.0000          5                    1.500         TR
       40         135.0000          4                    1.500         TR
       41         230.0000          5                    1.500         TR
       42         135.0000          4                    1.500         TR
       43         230.0000          5                    1.500         TR
       44         136.0000          4                    1.500         TR
       45         230.0000          5                    1.500         TR
       46         135.0000          4                    1.500         TR
       47         230.0000          5                    1.500         TR
       48         135.0000          4                    1.500         TR
       49         230.0000          5                    1.500         TR
       50         135.0000          4                    1.500         TR
       51         230.0000          5                    1.500         TR
       52         136.0000          4                    1.500         TR
       53         230.0000          5                    1.500         TR
       54         135.0000          4                    1.500         TR
       55         230.0000          5                    1.500         TR
       56         135.0000          4                    1.500         TR
       57         230.0000          5                    1.500         TR
       58         135.0000          4                    1.500         TR
       59         230.0000          5                    1.500         TR
       60         136.0000          4                    1.500         TR
       61         230.0000          5                    1.500         TR
       62         135.0000          4                    1.500         TR
       63         230.0000          5                    1.500         TR
       64         135.0000          4                    1.500         TR
       65         230.0000          5                    1.500         TR
       66         135.0000          4                    1.500         TR
       67         230.0000          5                    1.500         TR
       68         136.0000          4                    1.500         TR
       69         230.0000          5                    1.500         TR
       70         135.0000          4                    1.500         TR
       71         230.0000          5                    1.500         TR
       72         135.0000          4                    1.500         TR
       73         230.0000          5                    1.500         TR
       74         135.0000          4                    1.500         TR
       75         230.0000          5                    1.500         TR
       76         136.0000          4                    1.500         TR
       77         230.0000          5                    1.500         TR
       78         135.0000          4                    1.500         TR
       79         230.0000          5                    1.500         TR

 COMBINED STEADY-STATE AND TRANSIENT SIMULATION




 # Basic package input for MODFLOW2005 Back to Original                          
 THE PRINTTIME OPTION HAS BEEN SELECTED

 OPENING FILE ON UNIT   99:
 ../externalfiles/arrays/ZONE1.arz                                                                                                                                                                       



                     BOUNDARY ARRAY FOR LAYER   1
 READING ON UNIT   99 WITH FORMAT: (40I4)              

 OPENING FILE ON UNIT   99:
 ../externalfiles/arrays/ZONE2.arz                                                                                                                                                                       



                     BOUNDARY ARRAY FOR LAYER   2
 READING ON UNIT   99 WITH FORMAT: (40I4)              

 OPENING FILE ON UNIT   99:
 ../externalfiles/arrays/ZONE3.arz                                                                                                                                                                       



                     BOUNDARY ARRAY FOR LAYER   3
 READING ON UNIT   99 WITH FORMAT: (40I4)              

 OPENING FILE ON UNIT   99:
 ../externalfiles/arrays/MOD_ZONE4.arz                                                                                                                                                                   



                     BOUNDARY ARRAY FOR LAYER   4
 READING ON UNIT   99 WITH FORMAT: (40I4)              

 OPENING FILE ON UNIT   99:
 ../externalfiles/arrays/IBND5.array                                                                                                                                                                     



                     BOUNDARY ARRAY FOR LAYER   5
 READING ON UNIT   99 WITH FORMAT: (160I1)             

 OPENING FILE ON UNIT   99:
 ../externalfiles/arrays/IBND6.array                                                                                                                                                                     



                     BOUNDARY ARRAY FOR LAYER   6
 READING ON UNIT   99 WITH FORMAT: (160I1)             

 OPENING FILE ON UNIT   99:
 ../externalfiles/arrays/IBND7.array                                                                                                                                                                     



                     BOUNDARY ARRAY FOR LAYER   7
 READING ON UNIT   99 WITH FORMAT: (160I1)             

 OPENING FILE ON UNIT   99:
 ../externalfiles/arrays/IBND8.array                                                                                                                                                                     



                     BOUNDARY ARRAY FOR LAYER   8
 READING ON UNIT   99 WITH FORMAT: (160I1)             

 OPENING FILE ON UNIT   99:
 ../externalfiles/arrays/IBND9.array                                                                                                                                                                     



                     BOUNDARY ARRAY FOR LAYER   9
 READING ON UNIT   99 WITH FORMAT: (160I1)             

 AQUIFER HEAD WILL BE SET TO   0.0000     AT ALL NO-FLOW NODES (IBOUND=0).

 OUTPUT CONTROL IS SPECIFIED ONLY AT TIME STEPS FOR WHICH OUTPUT IS DESIRED

 ZONE OPTION, INPUT READ FROM UNIT   23
 # ZONE file for MF2005 Back to Original
    17 ZONE ARRAYS

 MULTIPLIER OPTION, INPUT READ FROM UNIT   24
 # Multiplier File for MF2005
  81 MULTIPLIER ARRAYS

 OPENING FILE ON UNIT   99:
 ../externalfiles/arrays/MTRCH.arm                                                                                                                                                                       



            MULT. ARRAY: RCHmtM    
 READING ON UNIT   99 WITH FORMAT: (10E12.4)           

 OPENING FILE ON UNIT   99:
 ../externalfiles/arrays/TRIBRCH.arm                                                                                                                                                                     



            MULT. ARRAY: RCHtribM  
 READING ON UNIT   99 WITH FORMAT: (8F10.7)            

 OPENING FILE ON UNIT   99:
 ../externalfiles/arrays/CANRHP35.arm                                                                                                                                                                    



            MULT. ARRAY: RCHcnlp35M
 READING ON UNIT   99 WITH FORMAT: (8F10.7)            

 OPENING FILE ON UNIT   99:
 ../externalfiles/arrays/CANRCH35.arm                                                                                                                                                                    



            MULT. ARRAY: RCHcnl35M 
 READING ON UNIT   99 WITH FORMAT: (8F10.7)            

 OPENING FILE ON UNIT   99:
 ../externalfiles/arrays/CANRCH55.arm                                                                                                                                                                    



            MULT. ARRAY: RCHcnl55M 
 READING ON UNIT   99 WITH FORMAT: (8F10.7)            

 OPENING FILE ON UNIT   99:
 ../externalfiles/arrays/CANRCH75.arm                                                                                                                                                                    



            MULT. ARRAY: RCHcnl75M 
 READING ON UNIT   99 WITH FORMAT: (8F10.7)            

 OPENING FILE ON UNIT   99:
 ../externalfiles/arrays/CANRCH92.arm                                                                                                                                                                    



            MULT. ARRAY: RCHcnl92M 
 READING ON UNIT   99 WITH FORMAT: (8F10.7)            

 OPENING FILE ON UNIT   99:
 ../externalfiles/arrays/SEPRCH70.arm                                                                                                                                                                    



            MULT. ARRAY: RCHsep70M 
 READING ON UNIT   99 WITH FORMAT: (8F10.7)            

 OPENING FILE ON UNIT   99:
 ../externalfiles/arrays/SEPRCH80.arm                                                                                                                                                                    



            MULT. ARRAY: RCHsep80M 
 READING ON UNIT   99 WITH FORMAT: (8F10.7)            

 OPENING FILE ON UNIT   99:
 ../externalfiles/arrays/SEPRCH90.arm                                                                                                                                                                    



            MULT. ARRAY: RCHsep90M 
 READING ON UNIT   99 WITH FORMAT: (8F10.7)            

 OPENING FILE ON UNIT   99:
 ../externalfiles/arrays/SEPRCH00.arm                                                                                                                                                                    



            MULT. ARRAY: RCHsep00M 
 READING ON UNIT   99 WITH FORMAT: (8F10.7)            

 OPENING FILE ON UNIT   99:
 ../externalfiles/arrays/ET35.arm                                                                                                                                                                        



            MULT. ARRAY: ETrg35M   
 READING ON UNIT   99 WITH FORMAT: (12F6.3)            

 OPENING FILE ON UNIT   99:
 ../externalfiles/arrays/ET55.arm                                                                                                                                                                        



            MULT. ARRAY: ETrg55M   
 READING ON UNIT   99 WITH FORMAT: (12F6.3)            

 OPENING FILE ON UNIT   99:
 ../externalfiles/arrays/ET75.arm                                                                                                                                                                        



            MULT. ARRAY: ETrg75M   
 READING ON UNIT   99 WITH FORMAT: (12F6.3)            

 OPENING FILE ON UNIT   99:
 ../externalfiles/arrays/ET92.arm                                                                                                                                                                        



            MULT. ARRAY: ETrg92M   
 READING ON UNIT   99 WITH FORMAT: (12F6.3)            

 OPENING FILE ON UNIT   99:
 ../externalfiles/arrays/JEM55ET.arm                                                                                                                                                                     



            MULT. ARRAY: ETjem55M  
 READING ON UNIT   99 WITH FORMAT: (12F6.3)            

 OPENING FILE ON UNIT   99:
 ../externalfiles/arrays/JEM75ET.arm                                                                                                                                                                     



            MULT. ARRAY: ETjem75M  
 READING ON UNIT   99 WITH FORMAT: (12F6.3)            

 OPENING FILE ON UNIT   99:
 ../externalfiles/arrays/IRRIG35.arm                                                                                                                                                                     



            MULT. ARRAY: RCHirr35M 
 READING ON UNIT   99 WITH FORMAT: (8F10.7)            

 OPENING FILE ON UNIT   99:
 ../externalfiles/arrays/IRRIG55.arm                                                                                                                                                                     



            MULT. ARRAY: RCHirr55M 
 READING ON UNIT   99 WITH FORMAT: (8F10.7)            

 OPENING FILE ON UNIT   99:
 ../externalfiles/arrays/IRRIG75.arm                                                                                                                                                                     



            MULT. ARRAY: RCHirr75M 
 READING ON UNIT   99 WITH FORMAT: (8F10.7)            

 OPENING FILE ON UNIT   99:
 ../externalfiles/arrays/IRRIG92.arm                                                                                                                                                                     



            MULT. ARRAY: RCHirr92M 
 READING ON UNIT   99 WITH FORMAT: (8F10.7)            

 OPENING FILE ON UNIT   99:
 ../externalfiles/arrays/JEMIRR55.arm                                                                                                                                                                    



            MULT. ARRAY: RCHjirr55M
 READING ON UNIT   99 WITH FORMAT: (8F10.7)            

 OPENING FILE ON UNIT   99:
 ../externalfiles/arrays/JEMIRR75.arm                                                                                                                                                                    



            MULT. ARRAY: RCHjirr75M
 READING ON UNIT   99 WITH FORMAT: (8F10.7)            

 OPENING FILE ON UNIT   99:
 ../externalfiles/arrays/CANJEM.arm                                                                                                                                                                      



            MULT. ARRAY: RCHjcanM  
 READING ON UNIT   99 WITH FORMAT: (8F10.7)            

 OPENING FILE ON UNIT   99:
 ../externalfiles/arrays/ZIARES.arm                                                                                                                                                                      



            MULT. ARRAY: RCHzresM  
 READING ON UNIT   99 WITH FORMAT: (8F10.7)            

 OPENING FILE ON UNIT   99:
 ../externalfiles/arrays/NEMULT.arm                                                                                                                                                                      



            MULT. ARRAY: KNEAST_M  
 READING ON UNIT   99 WITH FORMAT: (10F8.5)            

 OPENING FILE ON UNIT   99:
 ../externalfiles/arrays/NEMULT5.arm                                                                                                                                                                     



            MULT. ARRAY: KNEAST5_M 
 READING ON UNIT   99 WITH FORMAT: (10F8.5)            

  MULT. ARRAY: p1900-1904 =  9.870000E-05

  MULT. ARRAY: p1905-1909 =  1.850000E-04

  MULT. ARRAY: p1910-1914 =  2.710000E-04

  MULT. ARRAY: p1915-1919 =  3.570000E-04

  MULT. ARRAY: p1920-1924 =  4.430000E-04

  MULT. ARRAY: p1925-1929 =  5.290000E-04

  MULT. ARRAY: p1930-1934 =  6.510000E-04

  MULT. ARRAY: p1935-1939 =  1.190000E-03

  MULT. ARRAY: p1940-1944 =  1.750000E-03

  MULT. ARRAY: p1945-1949 =  3.230000E-03

  MULT. ARRAY: p1950-1954 =  2.240000E-03

  MULT. ARRAY: p1955-1959 =  3.320000E-03

  MULT. ARRAY: p1960-1964 =  4.930000E-03

  MULT. ARRAY: p1965-1969 =  5.880000E-03

  MULT. ARRAY: p1970-1974 =  2.650000E-03

  MULT. ARRAY: p1975      =  3.100000E-03

  MULT. ARRAY: p1976      =  3.540000E-03

  MULT. ARRAY: p1977      =  3.410000E-03

  MULT. ARRAY: p1978      =  3.390000E-03

  MULT. ARRAY: p1979      =  3.420000E-03

  MULT. ARRAY: p1980      =  3.530000E-03

  MULT. ARRAY: p1981      =  3.590000E-03

  MULT. ARRAY: p1982      =  3.660000E-03

  MULT. ARRAY: p1983      =  3.850000E-03

  MULT. ARRAY: p1984      =  3.960000E-03

  MULT. ARRAY: p1985      =  3.960000E-03

  MULT. ARRAY: p1986      =  4.120000E-03

  MULT. ARRAY: p1987      =  4.250000E-03

  MULT. ARRAY: p1988      =  4.450000E-03

  MULT. ARRAY: p1989      =  5.150000E-03

  MULT. ARRAY: p1990      =  4.630000E-03

  MULT. ARRAY: p1991      =  3.220000E-03

  MULT. ARRAY: p1992      =  3.500000E-03

  MULT. ARRAY: p1993      =  3.690000E-03

  MULT. ARRAY: p1994      =  3.710000E-03

  MULT. ARRAY: p1995      =  3.720000E-03

  MULT. ARRAY: p1996      =  3.590000E-03

  MULT. ARRAY: p1997      =  3.300000E-03

  MULT. ARRAY: p1998      =  3.400000E-03

  MULT. ARRAY: p1999      =  3.300000E-03

  MULT. ARRAY: p2000      =  3.430000E-03

  MULT. ARRAY: p2001      =  3.310000E-03

  MULT. ARRAY: p2002      =  3.210000E-03

  MULT. ARRAY: p2003      =  3.220000E-03

  MULT. ARRAY: p2004      =  3.020000E-03

  MULT. ARRAY: p2005      =  2.990000E-03

  MULT. ARRAY: p2006      =  2.910000E-03

  MULT. ARRAY: p2007      =  2.980000E-03

  MULT. ARRAY: p2008      =  2.980000E-03

  MULT. ARRAY: p2009      =  2.980000E-03

  MULT. ARRAY: p2010      =  2.980000E-03

  MULT. ARRAY: p2011      =  2.980000E-03

  MULT. ARRAY: p2012      =  2.980000E-03

  MULT. ARRAY: p2013      =  2.980000E-03

 OPENING FILE ON UNIT   99:
 ../externalfiles/arrays/ZONE1.arz                                                                                                                                                                       



             ZONE ARRAY: Kzone1    
 READING ON UNIT   99 WITH FORMAT: (40I4)              

 OPENING FILE ON UNIT   99:
 ../externalfiles/arrays/ZONE2.arz                                                                                                                                                                       



             ZONE ARRAY: Kzone2    
 READING ON UNIT   99 WITH FORMAT: (40I4)              

 OPENING FILE ON UNIT   99:
 ../externalfiles/arrays/ZONE3.arz                                                                                                                                                                       



             ZONE ARRAY: Kzone3    
 READING ON UNIT   99 WITH FORMAT: (40I4)              

 OPENING FILE ON UNIT   99:
 ../externalfiles/arrays/MOD_ZONE4.arz                                                                                                                                                                   



             ZONE ARRAY: Kzone4    
 READING ON UNIT   99 WITH FORMAT: (40I4)              

 OPENING FILE ON UNIT   99:
 ../externalfiles/arrays/ZONE5.arz                                                                                                                                                                       



             ZONE ARRAY: Kzone5    
 READING ON UNIT   99 WITH FORMAT: (40I4)              

 OPENING FILE ON UNIT   99:
 ../externalfiles/arrays/ZONE6.arz                                                                                                                                                                       



             ZONE ARRAY: Kzone6    
 READING ON UNIT   99 WITH FORMAT: (40I4)              

 OPENING FILE ON UNIT   99:
 ../externalfiles/arrays/ZONE7.arz                                                                                                                                                                       



             ZONE ARRAY: Kzone7    
 READING ON UNIT   99 WITH FORMAT: (40I4)              

 OPENING FILE ON UNIT   99:
 ../externalfiles/arrays/ZONE8.arz                                                                                                                                                                       



             ZONE ARRAY: Kzone8    
 READING ON UNIT   99 WITH FORMAT: (40I4)              

 OPENING FILE ON UNIT   99:
 ../externalfiles/arrays/ZONE9.arz                                                                                                                                                                       



             ZONE ARRAY: Kzone9    
 READING ON UNIT   99 WITH FORMAT: (40I4)              

 OPENING FILE ON UNIT   99:
 ../externalfiles/arrays/HANIZN1.arz                                                                                                                                                                     



             ZONE ARRAY: HANIzn1   
 READING ON UNIT   99 WITH FORMAT: (80I1)              

 OPENING FILE ON UNIT   99:
 ../externalfiles/arrays/HANIZN3.arz                                                                                                                                                                     



             ZONE ARRAY: HANIzn3   
 READING ON UNIT   99 WITH FORMAT: (80I1)              

 OPENING FILE ON UNIT   99:
 ../externalfiles/arrays/JEMETZN.arz                                                                                                                                                                     



             ZONE ARRAY: JEMETzn   
 READING ON UNIT   99 WITH FORMAT: (80I1)              

 OPENING FILE ON UNIT   99:
 ../externalfiles/arrays/TRIB.arz                                                                                                                                                                        



             ZONE ARRAY: TRIBzn    
 READING ON UNIT   99 WITH FORMAT: (80I1)              

 OPENING FILE ON UNIT   99:
 ../externalfiles/arrays/MT.arz                                                                                                                                                                          



             ZONE ARRAY: MTzn      
 READING ON UNIT   99 WITH FORMAT: (80I1)              

 OPENING FILE ON UNIT   99:
 ../externalfiles/arrays/SEWER.arz                                                                                                                                                                       



             ZONE ARRAY: sewer     
 READING ON UNIT   99 WITH FORMAT: (160I1)             

 OPENING FILE ON UNIT   99:
 ../externalfiles/arrays/VKZONE1.array                                                                                                                                                                   



             ZONE ARRAY: VKzone1   
 READING ON UNIT   99 WITH FORMAT: (160I1)             

 OPENING FILE ON UNIT   99:
 ../externalfiles/arrays/VKZONE2.array                                                                                                                                                                   



             ZONE ARRAY: VKzone2   
 READING ON UNIT   99 WITH FORMAT: (160I1)             

 LPF -- LAYER-PROPERTY FLOW PACKAGE, VERSION 7, 5/2/2005
         INPUT READ FROM UNIT   31
 #  Layer-Property Flow package for MF2005
 HEAD AT CELLS THAT CONVERT TO DRY=   4500.0    
    22 Named Parameters     

   LAYER FLAGS:
 LAYER       LAYTYP        LAYAVG         CHANI        LAYVKA        LAYWET
 ---------------------------------------------------------------------------
    1             1             0     0.000E+00             1             0
    2             1             0     0.000E+00             1             0
    3             1             0     0.000E+00             1             0
    4             1             0     0.000E+00             1             0
    5             0             0     0.000E+00             1             0
    6             0             0     0.000E+00             1             0
    7             0             0     0.000E+00             1             0
    8             0             0     0.000E+00             1             0
    9             0             0     0.000E+00             1             0

   INTERPRETATION OF LAYER FLAGS:
                        INTERBLOCK     HORIZONTAL    DATA IN
         LAYER TYPE   TRANSMISSIVITY   ANISOTROPY   ARRAY VKA   WETTABILITY
 LAYER      (LAYTYP)      (LAYAVG)       (CHANI)      (LAYVKA)      (LAYWET)
 ---------------------------------------------------------------------------
    1   CONVERTIBLE      HARMONIC      VARIABLE    ANISOTROPY  NON-WETTABLE
    2   CONVERTIBLE      HARMONIC      VARIABLE    ANISOTROPY  NON-WETTABLE
    3   CONVERTIBLE      HARMONIC      VARIABLE    ANISOTROPY  NON-WETTABLE
    4   CONVERTIBLE      HARMONIC      VARIABLE    ANISOTROPY  NON-WETTABLE
    5      CONFINED      HARMONIC      VARIABLE    ANISOTROPY  NON-WETTABLE
    6      CONFINED      HARMONIC      VARIABLE    ANISOTROPY  NON-WETTABLE
    7      CONFINED      HARMONIC      VARIABLE    ANISOTROPY  NON-WETTABLE
    8      CONFINED      HARMONIC      VARIABLE    ANISOTROPY  NON-WETTABLE
    9      CONFINED      HARMONIC      VARIABLE    ANISOTROPY  NON-WETTABLE

 WETTING CAPABILITY IS NOT ACTIVE IN ANY LAYER

 PARAMETERS DEFINED IN THE LPF PACKAGE
  PARAMETER NOT DEEDED FOR HEAVY: Knw       
  PARAMETER NOT DEEDED FOR HEAVY: Ksdm      
  PARAMETER NOT DEEDED FOR HEAVY: Ksdmc     
  PARAMETER NOT DEEDED FOR HEAVY: Kaxial2   
  PARAMETER NOT DEEDED FOR HEAVY: Kaxial1   
  PARAMETER NOT DEEDED FOR HEAVY: Kalluv    
  PARAMETER NOT DEEDED FOR HEAVY: Ksdfm     
  PARAMETER NOT DEEDED FOR HEAVY: Kcgsv     
  PARAMETER NOT DEEDED FOR HEAVY: Kdirt     
  PARAMETER NOT DEEDED FOR HEAVY: Ksilts    
  PARAMETER NOT DEEDED FOR HEAVY: Kintr     
  PARAMETER NOT DEEDED FOR HEAVY: Kvolc     
  PARAMETER NOT DEEDED FOR HEAVY: Ksdeo     
  PARAMETER NOT DEEDED FOR HEAVY: Kpdmt     
  PARAMETER NOT DEEDED FOR HEAVY: Ksdmcwest 
  PARAMETER NOT DEEDED FOR HEAVY: HANIyes   
  PARAMETER NOT DEEDED FOR HEAVY: HANIno    
  PARAMETER NOT DEEDED FOR HEAVY: HANItrf   
  PARAMETER NOT DEEDED FOR HEAVY: VANI1     
  PARAMETER NOT DEEDED FOR HEAVY: VANI2     

 PARAMETER NAME:SSall        TYPE:SS     CLUSTERS:   9
 Parameter value from package file is:   2.00000E-06
                LAYER:   1    MULTIPLIER ARRAY: NONE    ZONE ARRAY: ALL
                LAYER:   2    MULTIPLIER ARRAY: NONE    ZONE ARRAY: ALL
                LAYER:   3    MULTIPLIER ARRAY: NONE    ZONE ARRAY: ALL
                LAYER:   4    MULTIPLIER ARRAY: NONE    ZONE ARRAY: ALL
                LAYER:   5    MULTIPLIER ARRAY: NONE    ZONE ARRAY: ALL
                LAYER:   6    MULTIPLIER ARRAY: NONE    ZONE ARRAY: ALL
                LAYER:   7    MULTIPLIER ARRAY: NONE    ZONE ARRAY: ALL
                LAYER:   8    MULTIPLIER ARRAY: NONE    ZONE ARRAY: ALL
                LAYER:   9    MULTIPLIER ARRAY: NONE    ZONE ARRAY: ALL

 PARAMETER NAME:Syall        TYPE:SY     CLUSTERS:   4
 Parameter value from package file is:   0.20000    
                LAYER:   1    MULTIPLIER ARRAY: NONE    ZONE ARRAY: ALL
                LAYER:   2    MULTIPLIER ARRAY: NONE    ZONE ARRAY: ALL
                LAYER:   3    MULTIPLIER ARRAY: NONE    ZONE ARRAY: ALL
                LAYER:   4    MULTIPLIER ARRAY: NONE    ZONE ARRAY: ALL

         SPECIFIC STORAGE FOR LAYER   1 WILL BE DEFINED BY PARAMETERS
 (PRINT FLAG=  -3)

         SPECIFIC STORAGE is defined by the following parameters:
 SSall     

         SPECIFIC STORAGE =  2.000000E-06 FOR LAYER   1

           SPECIFIC YIELD FOR LAYER   1 WILL BE DEFINED BY PARAMETERS
 (PRINT FLAG=  -8)

           SPECIFIC YIELD is defined by the following parameters:
 Syall     

           SPECIFIC YIELD =  0.200000     FOR LAYER   1

         SPECIFIC STORAGE FOR LAYER   2 WILL BE DEFINED BY PARAMETERS
 (PRINT FLAG=  -7)

         SPECIFIC STORAGE is defined by the following parameters:
 SSall     

         SPECIFIC STORAGE =  2.000000E-06 FOR LAYER   2

           SPECIFIC YIELD FOR LAYER   2 WILL BE DEFINED BY PARAMETERS
 (PRINT FLAG=  -3)

           SPECIFIC YIELD is defined by the following parameters:
 Syall     

           SPECIFIC YIELD =  0.200000     FOR LAYER   2

         SPECIFIC STORAGE FOR LAYER   3 WILL BE DEFINED BY PARAMETERS
 (PRINT FLAG=  -3)

         SPECIFIC STORAGE is defined by the following parameters:
 SSall     

         SPECIFIC STORAGE =  2.000000E-06 FOR LAYER   3

           SPECIFIC YIELD FOR LAYER   3 WILL BE DEFINED BY PARAMETERS
 (PRINT FLAG=  -3)

           SPECIFIC YIELD is defined by the following parameters:
 Syall     

           SPECIFIC YIELD =  0.200000     FOR LAYER   3

         SPECIFIC STORAGE FOR LAYER   4 WILL BE DEFINED BY PARAMETERS
 (PRINT FLAG=  -8)

         SPECIFIC STORAGE is defined by the following parameters:
 SSall     

         SPECIFIC STORAGE =  2.000000E-06 FOR LAYER   4

           SPECIFIC YIELD FOR LAYER   4 WILL BE DEFINED BY PARAMETERS
 (PRINT FLAG=  -7)

           SPECIFIC YIELD is defined by the following parameters:
 Syall     

           SPECIFIC YIELD =  0.200000     FOR LAYER   4

         SPECIFIC STORAGE FOR LAYER   5 WILL BE DEFINED BY PARAMETERS
 (PRINT FLAG=  -3)

         SPECIFIC STORAGE is defined by the following parameters:
 SSall     

         SPECIFIC STORAGE =  2.000000E-06 FOR LAYER   5

         SPECIFIC STORAGE FOR LAYER   6 WILL BE DEFINED BY PARAMETERS
 (PRINT FLAG=  -3)

         SPECIFIC STORAGE is defined by the following parameters:
 SSall     

         SPECIFIC STORAGE =  2.000000E-06 FOR LAYER   6

         SPECIFIC STORAGE FOR LAYER   7 WILL BE DEFINED BY PARAMETERS
 (PRINT FLAG=  -3)

         SPECIFIC STORAGE is defined by the following parameters:
 SSall     

         SPECIFIC STORAGE =  2.000000E-06 FOR LAYER   7

         SPECIFIC STORAGE FOR LAYER   8 WILL BE DEFINED BY PARAMETERS
 (PRINT FLAG=  -8)

         SPECIFIC STORAGE is defined by the following parameters:
 SSall     

         SPECIFIC STORAGE =  2.000000E-06 FOR LAYER   8

         SPECIFIC STORAGE FOR LAYER   9 WILL BE DEFINED BY PARAMETERS
 (PRINT FLAG=  -7)

         SPECIFIC STORAGE is defined by the following parameters:
 SSall     

         SPECIFIC STORAGE =  2.000000E-06 FOR LAYER   9

 HEAVY MICROGRAVITY FORWARD MODEL VERSION 1.0.0, 2/25/2023
         INPUT read FROM UNIT   14
 MICROGRAVITY OUTPUT WILL BE SAVED ON UNIT   81
 GENERATING STATIONS ON A GRID. COMMAND STRING: 50                              

   HEAVY-GENERATED GRAVITY OBSERVATION LOCATIONS:
 PRLBL                   ZLOC          XLOC          YLOC
 --------------------------------------------------------
 G_1_1                  0.000       250.000    155750.011
 G_1_2                  0.000       250.000    152576.541
 G_1_3                  0.000       250.000    149403.072
 G_1_4                  0.000       250.000    146229.602
 G_1_5                  0.000       250.000    143056.133
 G_1_6                  0.000       250.000    139882.663
 G_1_7                  0.000       250.000    136709.193
 G_1_8                  0.000       250.000    133535.724
 G_1_9                  0.000       250.000    130362.254
 G_1_10                 0.000       250.000    127188.785
 G_1_11                 0.000       250.000    124015.315
 G_1_12                 0.000       250.000    120841.845
 G_1_13                 0.000       250.000    117668.376
 G_1_14                 0.000       250.000    114494.906
 G_1_15                 0.000       250.000    111321.436
 G_1_16                 0.000       250.000    108147.967
 G_1_17                 0.000       250.000    104974.497
 G_1_18                 0.000       250.000    101801.028
 G_1_19                 0.000       250.000     98627.558
 G_1_20                 0.000       250.000     95454.088
 G_1_21                 0.000       250.000     92280.619
 G_1_22                 0.000       250.000     89107.149
 G_1_23                 0.000       250.000     85933.680
 G_1_24                 0.000       250.000     82760.210
 G_1_25                 0.000       250.000     79586.740
 G_1_26                 0.000       250.000     76413.271
 G_1_27                 0.000       250.000     73239.801
 G_1_28                 0.000       250.000     70066.332
 G_1_29                 0.000       250.000     66892.862
 G_1_30                 0.000       250.000     63719.392
 G_1_31                 0.000       250.000     60545.923
 G_1_32                 0.000       250.000     57372.453
 G_1_33                 0.000       250.000     54198.983
 G_1_34                 0.000       250.000     51025.514
 G_1_35                 0.000       250.000     47852.044
 G_1_36                 0.000       250.000     44678.575
 G_1_37                 0.000       250.000     41505.105
 G_1_38              1671.737       250.000     38331.635
 G_1_39              1652.412       250.000     35158.166
 G_1_40                 0.000       250.000     31984.696
 G_1_41                 0.000       250.000     28811.227
 G_1_42                 0.000       250.000     25637.757
 G_1_43                 0.000       250.000     22464.287
 G_1_44                 0.000       250.000     19290.818
 G_1_45                 0.000       250.000     16117.348
 G_1_46                 0.000       250.000     12943.878
 G_1_47                 0.000       250.000      9770.409
 G_1_48                 0.000       250.000      6596.939
 G_1_49                 0.000       250.000      3423.470
 G_1_50                 0.000       250.000       250.000
 G_2_1                  0.000      1872.449    155750.011
 G_2_2                  0.000      1872.449    152576.541
 G_2_3                  0.000      1872.449    149403.072
 G_2_4                  0.000      1872.449    146229.602
 G_2_5                  0.000      1872.449    143056.133
 G_2_6                  0.000      1872.449    139882.663
 G_2_7                  0.000      1872.449    136709.193
 G_2_8                  0.000      1872.449    133535.724
 G_2_9                  0.000      1872.449    130362.254
 G_2_10                 0.000      1872.449    127188.785
 G_2_11                 0.000      1872.449    124015.315
 G_2_12                 0.000      1872.449    120841.845
 G_2_13                 0.000      1872.449    117668.376
 G_2_14                 0.000      1872.449    114494.906
 G_2_15                 0.000      1872.449    111321.436
 G_2_16                 0.000      1872.449    108147.967
 G_2_17                 0.000      1872.449    104974.497
 G_2_18                 0.000      1872.449    101801.028
 G_2_19                 0.000      1872.449     98627.558
 G_2_20                 0.000      1872.449     95454.088
 G_2_21                 0.000      1872.449     92280.619
 G_2_22                 0.000      1872.449     89107.149
 G_2_23                 0.000      1872.449     85933.680
 G_2_24                 0.000      1872.449     82760.210
 G_2_25                 0.000      1872.449     79586.740
 G_2_26                 0.000      1872.449     76413.271
 G_2_27                 0.000      1872.449     73239.801
 G_2_28                 0.000      1872.449     70066.332
 G_2_29                 0.000      1872.449     66892.862
 G_2_30                 0.000      1872.449     63719.392
 G_2_31                 0.000      1872.449     60545.923
 G_2_32                 0.000      1872.449     57372.453
 G_2_33                 0.000      1872.449     54198.983
 G_2_34                 0.000      1872.449     51025.514
 G_2_35              1702.857      1872.449     47852.044
 G_2_36              1712.763      1872.449     44678.575
 G_2_37              1681.460      1872.449     41505.105
 G_2_38              1652.290      1872.449     38331.635
 G_2_39              1639.763      1872.449     35158.166
 G_2_40              1645.798      1872.449     31984.696
 G_2_41                 0.000      1872.449     28811.227
 G_2_42                 0.000      1872.449     25637.757
 G_2_43                 0.000      1872.449     22464.287
 G_2_44                 0.000      1872.449     19290.818
 G_2_45                 0.000      1872.449     16117.348
 G_2_46                 0.000      1872.449     12943.878
 G_2_47                 0.000      1872.449      9770.409
 G_2_48                 0.000      1872.449      6596.939
 G_2_49                 0.000      1872.449      3423.470
 G_2_50                 0.000      1872.449       250.000
 G_3_1                  0.000      3494.898    155750.011
 G_3_2                  0.000      3494.898    152576.541
 G_3_3                  0.000      3494.898    149403.072
 G_3_4                  0.000      3494.898    146229.602
 G_3_5                  0.000      3494.898    143056.133
 G_3_6                  0.000      3494.898    139882.663
 G_3_7                  0.000      3494.898    136709.193
 G_3_8                  0.000      3494.898    133535.724
 G_3_9                  0.000      3494.898    130362.254
 G_3_10                 0.000      3494.898    127188.785
 G_3_11                 0.000      3494.898    124015.315
 G_3_12                 0.000      3494.898    120841.845
 G_3_13                 0.000      3494.898    117668.376
 G_3_14                 0.000      3494.898    114494.906
 G_3_15                 0.000      3494.898    111321.436
 G_3_16                 0.000      3494.898    108147.967
 G_3_17                 0.000      3494.898    104974.497
 G_3_18                 0.000      3494.898    101801.028
 G_3_19                 0.000      3494.898     98627.558
 G_3_20                 0.000      3494.898     95454.088
 G_3_21                 0.000      3494.898     92280.619
 G_3_22                 0.000      3494.898     89107.149
 G_3_23                 0.000      3494.898     85933.680
 G_3_24                 0.000      3494.898     82760.210
 G_3_25                 0.000      3494.898     79586.740
 G_3_26                 0.000      3494.898     76413.271
 G_3_27                 0.000      3494.898     73239.801
 G_3_28                 0.000      3494.898     70066.332
 G_3_29              1606.357      3494.898     66892.862
 G_3_30              1592.001      3494.898     63719.392
 G_3_31              1583.619      3494.898     60545.923
 G_3_32              1598.554      3494.898     57372.453
 G_3_33              1636.258      3494.898     54198.983
 G_3_34              1670.975      3494.898     51025.514
 G_3_35              1732.239      3494.898     47852.044
 G_3_36              1680.362      3494.898     44678.575
 G_3_37              1671.462      3494.898     41505.105
 G_3_38              1635.496      3494.898     38331.635
 G_3_39              1627.266      3494.898     35158.166
 G_3_40              1624.005      3494.898     31984.696
 G_3_41              1633.880      3494.898     28811.227
 G_3_42                 0.000      3494.898     25637.757
 G_3_43                 0.000      3494.898     22464.287
 G_3_44                 0.000      3494.898     19290.818
 G_3_45                 0.000      3494.898     16117.348
 G_3_46                 0.000      3494.898     12943.878
 G_3_47                 0.000      3494.898      9770.409
 G_3_48                 0.000      3494.898      6596.939
 G_3_49                 0.000      3494.898      3423.470
 G_3_50                 0.000      3494.898       250.000
 G_4_1                  0.000      5117.347    155750.011
 G_4_2                  0.000      5117.347    152576.541
 G_4_3                  0.000      5117.347    149403.072
 G_4_4                  0.000      5117.347    146229.602
 G_4_5                  0.000      5117.347    143056.133
 G_4_6                  0.000      5117.347    139882.663
 G_4_7                  0.000      5117.347    136709.193
 G_4_8                  0.000      5117.347    133535.724
 G_4_9                  0.000      5117.347    130362.254
 G_4_10                 0.000      5117.347    127188.785
 G_4_11                 0.000      5117.347    124015.315
 G_4_12                 0.000      5117.347    120841.845
 G_4_13                 0.000      5117.347    117668.376
 G_4_14                 0.000      5117.347    114494.906
 G_4_15                 0.000      5117.347    111321.436
 G_4_16                 0.000      5117.347    108147.967
 G_4_17                 0.000      5117.347    104974.497
 G_4_18                 0.000      5117.347    101801.028
 G_4_19                 0.000      5117.347     98627.558
 G_4_20                 0.000      5117.347     95454.088
 G_4_21                 0.000      5117.347     92280.619
 G_4_22                 0.000      5117.347     89107.149
 G_4_23                 0.000      5117.347     85933.680
 G_4_24                 0.000      5117.347     82760.210
 G_4_25                 0.000      5117.347     79586.740
 G_4_26                 0.000      5117.347     76413.271
 G_4_27                 0.000      5117.347     73239.801
 G_4_28                 0.000      5117.347     70066.332
 G_4_29              1615.745      5117.347     66892.862
 G_4_30              1567.343      5117.347     63719.392
 G_4_31              1557.955      5117.347     60545.923
 G_4_32              1582.369      5117.347     57372.453
 G_4_33              1609.039      5117.347     54198.983
 G_4_34              1653.022      5117.347     51025.514
 G_4_35              1717.609      5117.347     47852.044
 G_4_36              1694.048      5117.347     44678.575
 G_4_37              1646.072      5117.347     41505.105
 G_4_38              1625.163      5117.347     38331.635
 G_4_39              1611.661      5117.347     35158.166
 G_4_40              1604.101      5117.347     31984.696
 G_4_41              1621.079      5117.347     28811.227
 G_4_42              1662.044      5117.347     25637.757
 G_4_43                 0.000      5117.347     22464.287
 G_4_44                 0.000      5117.347     19290.818
 G_4_45                 0.000      5117.347     16117.348
 G_4_46                 0.000      5117.347     12943.878
 G_4_47                 0.000      5117.347      9770.409
 G_4_48                 0.000      5117.347      6596.939
 G_4_49                 0.000      5117.347      3423.470
 G_4_50                 0.000      5117.347       250.000
 G_5_1                  0.000      6739.796    155750.011
 G_5_2                  0.000      6739.796    152576.541
 G_5_3                  0.000      6739.796    149403.072
 G_5_4                  0.000      6739.796    146229.602
 G_5_5                  0.000      6739.796    143056.133
 G_5_6                  0.000      6739.796    139882.663
 G_5_7                  0.000      6739.796    136709.193
 G_5_8                  0.000      6739.796    133535.724
 G_5_9                  0.000      6739.796    130362.254
 G_5_10                 0.000      6739.796    127188.785
 G_5_11                 0.000      6739.796    124015.315
 G_5_12                 0.000      6739.796    120841.845
 G_5_13                 0.000      6739.796    117668.376
 G_5_14                 0.000      6739.796    114494.906
 G_5_15                 0.000      6739.796    111321.436
 G_5_16                 0.000      6739.796    108147.967
 G_5_17                 0.000      6739.796    104974.497
 G_5_18                 0.000      6739.796    101801.028
 G_5_19                 0.000      6739.796     98627.558
 G_5_20                 0.000      6739.796     95454.088
 G_5_21                 0.000      6739.796     92280.619
 G_5_22                 0.000      6739.796     89107.149
 G_5_23                 0.000      6739.796     85933.680
 G_5_24                 0.000      6739.796     82760.210
 G_5_25                 0.000      6739.796     79586.740
 G_5_26                 0.000      6739.796     76413.271
 G_5_27                 0.000      6739.796     73239.801
 G_5_28              1545.549      6739.796     70066.332
 G_5_29              1565.026      6739.796     66892.862
 G_5_30              1571.640      6739.796     63719.392
 G_5_31              1555.577      6739.796     60545.923
 G_5_32              1582.887      6739.796     57372.453
 G_5_33              1634.917      6739.796     54198.983
 G_5_34              1663.477      6739.796     51025.514
 G_5_35              1694.261      6739.796     47852.044
 G_5_36              1706.027      6739.796     44678.575
 G_5_37              1657.502      6739.796     41505.105
 G_5_38              1631.930      6739.796     38331.635
 G_5_39              1600.566      6739.796     35158.166
 G_5_40              1598.005      6739.796     31984.696
 G_5_41              1604.620      6739.796     28811.227
 G_5_42              1633.667      6739.796     25637.757
 G_5_43                 0.000      6739.796     22464.287
 G_5_44                 0.000      6739.796     19290.818
 G_5_45                 0.000      6739.796     16117.348
 G_5_46                 0.000      6739.796     12943.878
 G_5_47                 0.000      6739.796      9770.409
 G_5_48                 0.000      6739.796      6596.939
 G_5_49                 0.000      6739.796      3423.470
 G_5_50                 0.000      6739.796       250.000
 G_6_1                  0.000      8362.245    155750.011
 G_6_2                  0.000      8362.245    152576.541
 G_6_3                  0.000      8362.245    149403.072
 G_6_4                  0.000      8362.245    146229.602
 G_6_5                  0.000      8362.245    143056.133
 G_6_6                  0.000      8362.245    139882.663
 G_6_7                  0.000      8362.245    136709.193
 G_6_8                  0.000      8362.245    133535.724
 G_6_9                  0.000      8362.245    130362.254
 G_6_10                 0.000      8362.245    127188.785
 G_6_11                 0.000      8362.245    124015.315
 G_6_12                 0.000      8362.245    120841.845
 G_6_13                 0.000      8362.245    117668.376
 G_6_14                 0.000      8362.245    114494.906
 G_6_15                 0.000      8362.245    111321.436
 G_6_16                 0.000      8362.245    108147.967
 G_6_17                 0.000      8362.245    104974.497
 G_6_18                 0.000      8362.245    101801.028
 G_6_19                 0.000      8362.245     98627.558
 G_6_20                 0.000      8362.245     95454.088
 G_6_21                 0.000      8362.245     92280.619
 G_6_22                 0.000      8362.245     89107.149
 G_6_23                 0.000      8362.245     85933.680
 G_6_24                 0.000      8362.245     82760.210
 G_6_25                 0.000      8362.245     79586.740
 G_6_26                 0.000      8362.245     76413.271
 G_6_27                 0.000      8362.245     73239.801
 G_6_28              1553.139      8362.245     70066.332
 G_6_29              1553.627      8362.245     66892.862
 G_6_30              1578.651      8362.245     63719.392
 G_6_31              1576.913      8362.245     60545.923
 G_6_32              1564.538      8362.245     57372.453
 G_6_33              1607.424      8362.245     54198.983
 G_6_34              1640.190      8362.245     51025.514
 G_6_35              1617.391      8362.245     47852.044
 G_6_36              1663.111      8362.245     44678.575
 G_6_37              1661.587      8362.245     41505.105
 G_6_38              1611.356      8362.245     38331.635
 G_6_39              1585.783      8362.245     35158.166
 G_6_40              1586.118      8362.245     31984.696
 G_6_41              1588.343      8362.245     28811.227
 G_6_42              1604.193      8362.245     25637.757
 G_6_43                 0.000      8362.245     22464.287
 G_6_44                 0.000      8362.245     19290.818
 G_6_45                 0.000      8362.245     16117.348
 G_6_46                 0.000      8362.245     12943.878
 G_6_47                 0.000      8362.245      9770.409
 G_6_48                 0.000      8362.245      6596.939
 G_6_49                 0.000      8362.245      3423.470
 G_6_50                 0.000      8362.245       250.000
 G_7_1                  0.000      9984.695    155750.011
 G_7_2                  0.000      9984.695    152576.541
 G_7_3                  0.000      9984.695    149403.072
 G_7_4                  0.000      9984.695    146229.602
 G_7_5                  0.000      9984.695    143056.133
 G_7_6                  0.000      9984.695    139882.663
 G_7_7                  0.000      9984.695    136709.193
 G_7_8                  0.000      9984.695    133535.724
 G_7_9                  0.000      9984.695    130362.254
 G_7_10                 0.000      9984.695    127188.785
 G_7_11                 0.000      9984.695    124015.315
 G_7_12                 0.000      9984.695    120841.845
 G_7_13                 0.000      9984.695    117668.376
 G_7_14                 0.000      9984.695    114494.906
 G_7_15                 0.000      9984.695    111321.436
 G_7_16                 0.000      9984.695    108147.967
 G_7_17                 0.000      9984.695    104974.497
 G_7_18                 0.000      9984.695    101801.028
 G_7_19                 0.000      9984.695     98627.558
 G_7_20                 0.000      9984.695     95454.088
 G_7_21                 0.000      9984.695     92280.619
 G_7_22                 0.000      9984.695     89107.149
 G_7_23                 0.000      9984.695     85933.680
 G_7_24                 0.000      9984.695     82760.210
 G_7_25                 0.000      9984.695     79586.740
 G_7_26                 0.000      9984.695     76413.271
 G_7_27              1568.836      9984.695     73239.801
 G_7_28              1587.429      9984.695     70066.332
 G_7_29              1570.909      9984.695     66892.862
 G_7_30              1541.587      9984.695     63719.392
 G_7_31              1544.787      9984.695     60545.923
 G_7_32              1590.325      9984.695     57372.453
 G_7_33              1574.231      9984.695     54198.983
 G_7_34              1598.097      9984.695     51025.514
 G_7_35              1591.605      9984.695     47852.044
 G_7_36              1623.121      9984.695     44678.575
 G_7_37              1642.110      9984.695     41505.105
 G_7_38              1621.963      9984.695     38331.635
 G_7_39              1589.532      9984.695     35158.166
 G_7_40              1574.201      9984.695     31984.696
 G_7_41              1571.945      9984.695     28811.227
 G_7_42              1578.163      9984.695     25637.757
 G_7_43              1626.504      9984.695     22464.287
 G_7_44                 0.000      9984.695     19290.818
 G_7_45                 0.000      9984.695     16117.348
 G_7_46                 0.000      9984.695     12943.878
 G_7_47                 0.000      9984.695      9770.409
 G_7_48                 0.000      9984.695      6596.939
 G_7_49                 0.000      9984.695      3423.470
 G_7_50                 0.000      9984.695       250.000
 G_8_1                  0.000     11607.144    155750.011
 G_8_2                  0.000     11607.144    152576.541
 G_8_3                  0.000     11607.144    149403.072
 G_8_4                  0.000     11607.144    146229.602
 G_8_5                  0.000     11607.144    143056.133
 G_8_6                  0.000     11607.144    139882.663
 G_8_7                  0.000     11607.144    136709.193
 G_8_8                  0.000     11607.144    133535.724
 G_8_9                  0.000     11607.144    130362.254
 G_8_10                 0.000     11607.144    127188.785
 G_8_11                 0.000     11607.144    124015.315
 G_8_12                 0.000     11607.144    120841.845
 G_8_13                 0.000     11607.144    117668.376
 G_8_14                 0.000     11607.144    114494.906
 G_8_15                 0.000     11607.144    111321.436
 G_8_16                 0.000     11607.144    108147.967
 G_8_17                 0.000     11607.144    104974.497
 G_8_18                 0.000     11607.144    101801.028
 G_8_19                 0.000     11607.144     98627.558
 G_8_20                 0.000     11607.144     95454.088
 G_8_21                 0.000     11607.144     92280.619
 G_8_22                 0.000     11607.144     89107.149
 G_8_23                 0.000     11607.144     85933.680
 G_8_24                 0.000     11607.144     82760.210
 G_8_25                 0.000     11607.144     79586.740
 G_8_26              1586.575     11607.144     76413.271
 G_8_27              1592.001     11607.144     73239.801
 G_8_28              1665.793     11607.144     70066.332
 G_8_29              1595.323     11607.144     66892.862
 G_8_30              1571.579     11607.144     63719.392
 G_8_31              1581.546     11607.144     60545.923
 G_8_32              1536.405     11607.144     57372.453
 G_8_33              1527.322     11607.144     54198.983
 G_8_34              1577.736     11607.144     51025.514
 G_8_35              1577.675     11607.144     47852.044
 G_8_36              1626.230     11607.144     44678.575
 G_8_37              1634.368     11607.144     41505.105
 G_8_38              1614.709     11607.144     38331.635
 G_8_39              1592.458     11607.144     35158.166
 G_8_40              1568.379     11607.144     31984.696
 G_8_41              1566.977     11607.144     28811.227
 G_8_42              1556.065     11607.144     25637.757
 G_8_43              1592.306     11607.144     22464.287
 G_8_44              1610.350     11607.144     19290.818
 G_8_45              1644.548     11607.144     16117.348
 G_8_46              1659.484     11607.144     12943.878
 G_8_47              1594.409     11607.144      9770.409
 G_8_48                 0.000     11607.144      6596.939
 G_8_49                 0.000     11607.144      3423.470
 G_8_50                 0.000     11607.144       250.000
 G_9_1                  0.000     13229.593    155750.011
 G_9_2                  0.000     13229.593    152576.541
 G_9_3                  0.000     13229.593    149403.072
 G_9_4                  0.000     13229.593    146229.602
 G_9_5                  0.000     13229.593    143056.133
 G_9_6                  0.000     13229.593    139882.663
 G_9_7                  0.000     13229.593    136709.193
 G_9_8                  0.000     13229.593    133535.724
 G_9_9                  0.000     13229.593    130362.254
 G_9_10                 0.000     13229.593    127188.785
 G_9_11                 0.000     13229.593    124015.315
 G_9_12                 0.000     13229.593    120841.845
 G_9_13                 0.000     13229.593    117668.376
 G_9_14                 0.000     13229.593    114494.906
 G_9_15                 0.000     13229.593    111321.436
 G_9_16                 0.000     13229.593    108147.967
 G_9_17                 0.000     13229.593    104974.497
 G_9_18                 0.000     13229.593    101801.028
 G_9_19                 0.000     13229.593     98627.558
 G_9_20                 0.000     13229.593     95454.088
 G_9_21                 0.000     13229.593     92280.619
 G_9_22                 0.000     13229.593     89107.149
 G_9_23                 0.000     13229.593     85933.680
 G_9_24                 0.000     13229.593     82760.210
 G_9_25                 0.000     13229.593     79586.740
 G_9_26              1577.828     13229.593     76413.271
 G_9_27              1609.466     13229.593     73239.801
 G_9_28              1712.732     13229.593     70066.332
 G_9_29              1642.384     13229.593     66892.862
 G_9_30              1646.438     13229.593     63719.392
 G_9_31              1657.868     13229.593     60545.923
 G_9_32              1580.327     13229.593     57372.453
 G_9_33              1515.557     13229.593     54198.983
 G_9_34              1547.012     13229.593     51025.514
 G_9_35              1554.998     13229.593     47852.044
 G_9_36              1591.147     13229.593     44678.575
 G_9_37              1588.740     13229.593     41505.105
 G_9_38              1595.018     13229.593     38331.635
 G_9_39              1585.935     13229.593     35158.166
 G_9_40              1564.081     13229.593     31984.696
 G_9_41              1548.811     13229.593     28811.227
 G_9_42              1534.272     13229.593     25637.757
 G_9_43              1573.652     13229.593     22464.287
 G_9_44              1584.594     13229.593     19290.818
 G_9_45              1597.487     13229.593     16117.348
 G_9_46              1596.542     13229.593     12943.878
 G_9_47              1581.302     13229.593      9770.409
 G_9_48              1546.860     13229.593      6596.939
 G_9_49                 0.000     13229.593      3423.470
 G_9_50                 0.000     13229.593       250.000
 G_10_1                 0.000     14852.042    155750.011
 G_10_2                 0.000     14852.042    152576.541
 G_10_3                 0.000     14852.042    149403.072
 G_10_4                 0.000     14852.042    146229.602
 G_10_5                 0.000     14852.042    143056.133
 G_10_6                 0.000     14852.042    139882.663
 G_10_7                 0.000     14852.042    136709.193
 G_10_8                 0.000     14852.042    133535.724
 G_10_9                 0.000     14852.042    130362.254
 G_10_10                0.000     14852.042    127188.785
 G_10_11                0.000     14852.042    124015.315
 G_10_12                0.000     14852.042    120841.845
 G_10_13                0.000     14852.042    117668.376
 G_10_14                0.000     14852.042    114494.906
 G_10_15                0.000     14852.042    111321.436
 G_10_16                0.000     14852.042    108147.967
 G_10_17                0.000     14852.042    104974.497
 G_10_18                0.000     14852.042    101801.028
 G_10_19                0.000     14852.042     98627.558
 G_10_20                0.000     14852.042     95454.088
 G_10_21                0.000     14852.042     92280.619
 G_10_22                0.000     14852.042     89107.149
 G_10_23                0.000     14852.042     85933.680
 G_10_24                0.000     14852.042     82760.210
 G_10_25             1594.622     14852.042     79586.740
 G_10_26             1583.832     14852.042     76413.271
 G_10_27             1636.624     14852.042     73239.801
 G_10_28             1723.400     14852.042     70066.332
 G_10_29             1685.117     14852.042     66892.862
 G_10_30             1685.117     14852.042     63719.392
 G_10_31             1654.485     14852.042     60545.923
 G_10_32             1592.550     14852.042     57372.453
 G_10_33             1518.209     14852.042     54198.983
 G_10_34             1531.315     14852.042     51025.514
 G_10_35             1550.914     14852.042     47852.044
 G_10_36             1561.277     14852.042     44678.575
 G_10_37             1562.862     14852.042     41505.105
 G_10_38             1560.881     14852.042     38331.635
 G_10_39             1565.453     14852.042     35158.166
 G_10_40             1553.352     14852.042     31984.696
 G_10_41             1539.453     14852.042     28811.227
 G_10_42             1519.459     14852.042     25637.757
 G_10_43             1550.152     14852.042     22464.287
 G_10_44             1539.301     14852.042     19290.818
 G_10_45             1559.174     14852.042     16117.348
 G_10_46             1575.725     14852.042     12943.878
 G_10_47             1557.924     14852.042      9770.409
 G_10_48             1545.976     14852.042      6596.939
 G_10_49                0.000     14852.042      3423.470
 G_10_50                0.000     14852.042       250.000
 G_11_1                 0.000     16474.491    155750.011
 G_11_2                 0.000     16474.491    152576.541
 G_11_3                 0.000     16474.491    149403.072
 G_11_4                 0.000     16474.491    146229.602
 G_11_5                 0.000     16474.491    143056.133
 G_11_6                 0.000     16474.491    139882.663
 G_11_7                 0.000     16474.491    136709.193
 G_11_8                 0.000     16474.491    133535.724
 G_11_9                 0.000     16474.491    130362.254
 G_11_10                0.000     16474.491    127188.785
 G_11_11                0.000     16474.491    124015.315
 G_11_12                0.000     16474.491    120841.845
 G_11_13                0.000     16474.491    117668.376
 G_11_14                0.000     16474.491    114494.906
 G_11_15                0.000     16474.491    111321.436
 G_11_16                0.000     16474.491    108147.967
 G_11_17                0.000     16474.491    104974.497
 G_11_18                0.000     16474.491    101801.028
 G_11_19                0.000     16474.491     98627.558
 G_11_20                0.000     16474.491     95454.088
 G_11_21                0.000     16474.491     92280.619
 G_11_22                0.000     16474.491     89107.149
 G_11_23                0.000     16474.491     85933.680
 G_11_24             1596.421     16474.491     82760.210
 G_11_25             1588.953     16474.491     79586.740
 G_11_26             1608.430     16474.491     76413.271
 G_11_27             1659.392     16474.491     73239.801
 G_11_28             1719.986     16474.491     70066.332
 G_11_29             1706.301     16474.491     66892.862
 G_11_30             1691.122     16474.491     63719.392
 G_11_31             1655.857     16474.491     60545.923
 G_11_32             1578.072     16474.491     57372.453
 G_11_33             1524.061     16474.491     54198.983
 G_11_34             1514.307     16474.491     51025.514
 G_11_35             1530.614     16474.491     47852.044
 G_11_36             1528.938     16474.491     44678.575
 G_11_37             1537.868     16474.491     41505.105
 G_11_38             1525.341     16474.491     38331.635
 G_11_39             1545.214     16474.491     35158.166
 G_11_40             1535.095     16474.491     31984.696
 G_11_41             1513.698     16474.491     28811.227
 G_11_42             1535.125     16474.491     25637.757
 G_11_43             1520.922     16474.491     22464.287
 G_11_44             1534.058     16474.491     19290.818
 G_11_45             1537.960     16474.491     16117.348
 G_11_46             1540.490     16474.491     12943.878
 G_11_47             1537.503     16474.491      9770.409
 G_11_48             1512.082     16474.491      6596.939
 G_11_49             1481.298     16474.491      3423.470
 G_11_50                0.000     16474.491       250.000
 G_12_1                 0.000     18096.940    155750.011
 G_12_2                 0.000     18096.940    152576.541
 G_12_3                 0.000     18096.940    149403.072
 G_12_4                 0.000     18096.940    146229.602
 G_12_5                 0.000     18096.940    143056.133
 G_12_6                 0.000     18096.940    139882.663
 G_12_7                 0.000     18096.940    136709.193
 G_12_8                 0.000     18096.940    133535.724
 G_12_9                 0.000     18096.940    130362.254
 G_12_10                0.000     18096.940    127188.785
 G_12_11                0.000     18096.940    124015.315
 G_12_12                0.000     18096.940    120841.845
 G_12_13                0.000     18096.940    117668.376
 G_12_14                0.000     18096.940    114494.906
 G_12_15                0.000     18096.940    111321.436
 G_12_16                0.000     18096.940    108147.967
 G_12_17                0.000     18096.940    104974.497
 G_12_18                0.000     18096.940    101801.028
 G_12_19                0.000     18096.940     98627.558
 G_12_20                0.000     18096.940     95454.088
 G_12_21                0.000     18096.940     92280.619
 G_12_22                0.000     18096.940     89107.149
 G_12_23             1667.591     18096.940     85933.680
 G_12_24             1652.839     18096.940     82760.210
 G_12_25             1623.913     18096.940     79586.740
 G_12_26             1640.281     18096.940     76413.271
 G_12_27             1723.156     18096.940     73239.801
 G_12_28             1695.938     18096.940     70066.332
 G_12_29             1668.109     18096.940     66892.862
 G_12_30             1644.792     18096.940     63719.392
 G_12_31             1631.594     18096.940     60545.923
 G_12_32             1608.673     18096.940     57372.453
 G_12_33             1555.577     18096.940     54198.983
 G_12_34             1517.965     18096.940     51025.514
 G_12_35             1515.588     18096.940     47852.044
 G_12_36             1498.702     18096.940     44678.575
 G_12_37             1498.641     18096.940     41505.105
 G_12_38             1488.034     18096.940     38331.635
 G_12_39             1492.697     18096.940     35158.166
 G_12_40             1522.933     18096.940     31984.696
 G_12_41             1488.704     18096.940     28811.227
 G_12_42             1504.188     18096.940     25637.757
 G_12_43             1477.853     18096.940     22464.287
 G_12_44             1506.200     18096.940     19290.818
 G_12_45             1505.712     18096.940     16117.348
 G_12_46             1528.115     18096.940     12943.878
 G_12_47             1532.504     18096.940      9770.409
 G_12_48             1500.134     18096.940      6596.939
 G_12_49             1456.030     18096.940      3423.470
 G_12_50                0.000     18096.940       250.000
 G_13_1                 0.000     19719.389    155750.011
 G_13_2                 0.000     19719.389    152576.541
 G_13_3                 0.000     19719.389    149403.072
 G_13_4                 0.000     19719.389    146229.602
 G_13_5                 0.000     19719.389    143056.133
 G_13_6                 0.000     19719.389    139882.663
 G_13_7                 0.000     19719.389    136709.193
 G_13_8                 0.000     19719.389    133535.724
 G_13_9                 0.000     19719.389    130362.254
 G_13_10                0.000     19719.389    127188.785
 G_13_11                0.000     19719.389    124015.315
 G_13_12                0.000     19719.389    120841.845
 G_13_13                0.000     19719.389    117668.376
 G_13_14                0.000     19719.389    114494.906
 G_13_15                0.000     19719.389    111321.436
 G_13_16                0.000     19719.389    108147.967
 G_13_17                0.000     19719.389    104974.497
 G_13_18                0.000     19719.389    101801.028
 G_13_19                0.000     19719.389     98627.558
 G_13_20                0.000     19719.389     95454.088
 G_13_21                0.000     19719.389     92280.619
 G_13_22                0.000     19719.389     89107.149
 G_13_23             1700.601     19719.389     85933.680
 G_13_24             1686.458     19719.389     82760.210
 G_13_25             1648.206     19719.389     79586.740
 G_13_26             1726.082     19719.389     76413.271
 G_13_27             1689.903     19719.389     73239.801
 G_13_28             1682.709     19719.389     70066.332
 G_13_29             1681.947     19719.389     66892.862
 G_13_30             1653.814     19719.389     63719.392
 G_13_31             1639.123     19719.389     60545.923
 G_13_32             1621.109     19719.389     57372.453
 G_13_33             1607.241     19719.389     54198.983
 G_13_34             1557.223     19719.389     51025.514
 G_13_35             1506.230     19719.389     47852.044
 G_13_36             1502.999     19719.389     44678.575
 G_13_37             1507.754     19719.389     41505.105
 G_13_38             1513.667     19719.389     38331.635
 G_13_39             1477.579     19719.389     35158.166
 G_13_40             1485.473     19719.389     31984.696
 G_13_41             1478.798     19719.389     28811.227
 G_13_42             1469.258     19719.389     25637.757
 G_13_43             1461.120     19719.389     22464.287
 G_13_44             1458.163     19719.389     19290.818
 G_13_45             1485.961     19719.389     16117.348
 G_13_46             1527.292     19719.389     12943.878
 G_13_47             1490.350     19719.389      9770.409
 G_13_48             1510.894     19719.389      6596.939
 G_13_49             1452.738     19719.389      3423.470
 G_13_50                0.000     19719.389       250.000
 G_14_1                 0.000     21341.838    155750.011
 G_14_2                 0.000     21341.838    152576.541
 G_14_3                 0.000     21341.838    149403.072
 G_14_4                 0.000     21341.838    146229.602
 G_14_5                 0.000     21341.838    143056.133
 G_14_6                 0.000     21341.838    139882.663
 G_14_7                 0.000     21341.838    136709.193
 G_14_8                 0.000     21341.838    133535.724
 G_14_9                 0.000     21341.838    130362.254
 G_14_10                0.000     21341.838    127188.785
 G_14_11                0.000     21341.838    124015.315
 G_14_12                0.000     21341.838    120841.845
 G_14_13                0.000     21341.838    117668.376
 G_14_14                0.000     21341.838    114494.906
 G_14_15                0.000     21341.838    111321.436
 G_14_16                0.000     21341.838    108147.967
 G_14_17             1791.736     21341.838    104974.497
 G_14_18             1775.125     21341.838    101801.028
 G_14_19             1785.823     21341.838     98627.558
 G_14_20             1796.857     21341.838     95454.088
 G_14_21             1728.673     21341.838     92280.619
 G_14_22             1757.111     21341.838     89107.149
 G_14_23             1748.516     21341.838     85933.680
 G_14_24             1735.257     21341.838     82760.210
 G_14_25             1701.211     21341.838     79586.740
 G_14_26             1708.495     21341.838     76413.271
 G_14_27             1684.172     21341.838     73239.801
 G_14_28             1694.292     21341.838     70066.332
 G_14_29             1693.499     21341.838     66892.862
 G_14_30             1640.251     21341.838     63719.392
 G_14_31             1628.485     21341.838     60545.923
 G_14_32             1623.974     21341.838     57372.453
 G_14_33             1614.129     21341.838     54198.983
 G_14_34             1602.791     21341.838     51025.514
 G_14_35             1545.702     21341.838     47852.044
 G_14_36             1556.187     21341.838     44678.575
 G_14_37             1566.520     21341.838     41505.105
 G_14_38             1564.752     21341.838     38331.635
 G_14_39             1496.781     21341.838     35158.166
 G_14_40             1470.934     21341.838     31984.696
 G_14_41             1485.595     21341.838     28811.227
 G_14_42             1461.211     21341.838     25637.757
 G_14_43             1469.715     21341.838     22464.287
 G_14_44             1449.324     21341.838     19290.818
 G_14_45             1466.911     21341.838     16117.348
 G_14_46             1490.259     21341.838     12943.878
 G_14_47             1451.823     21341.838      9770.409
 G_14_48             1440.058     21341.838      6596.939
 G_14_49             1477.518     21341.838      3423.470
 G_14_50                0.000     21341.838       250.000
 G_15_1                 0.000     22964.287    155750.011
 G_15_2                 0.000     22964.287    152576.541
 G_15_3                 0.000     22964.287    149403.072
[...]
 G_44_7              1642.659     70015.311    136709.193
 G_44_8              1674.449     70015.311    133535.724
 G_44_9              1686.580     70015.311    130362.254
 G_44_10                0.000     70015.311    127188.785
 G_44_11                0.000     70015.311    124015.315
 G_44_12                0.000     70015.311    120841.845
 G_44_13                0.000     70015.311    117668.376
 G_44_14                0.000     70015.311    114494.906
 G_44_15                0.000     70015.311    111321.436
 G_44_16                0.000     70015.311    108147.967
 G_44_17                0.000     70015.311    104974.497
 G_44_18                0.000     70015.311    101801.028
 G_44_19                0.000     70015.311     98627.558
 G_44_20                0.000     70015.311     95454.088
 G_44_21                0.000     70015.311     92280.619
 G_44_22                0.000     70015.311     89107.149
 G_44_23                0.000     70015.311     85933.680
 G_44_24                0.000     70015.311     82760.210
 G_44_25                0.000     70015.311     79586.740
 G_44_26                0.000     70015.311     76413.271
 G_44_27                0.000     70015.311     73239.801
 G_44_28                0.000     70015.311     70066.332
 G_44_29                0.000     70015.311     66892.862
 G_44_30                0.000     70015.311     63719.392
 G_44_31                0.000     70015.311     60545.923
 G_44_32                0.000     70015.311     57372.453
 G_44_33                0.000     70015.311     54198.983
 G_44_34                0.000     70015.311     51025.514
 G_44_35                0.000     70015.311     47852.044
 G_44_36                0.000     70015.311     44678.575
 G_44_37                0.000     70015.311     41505.105
 G_44_38                0.000     70015.311     38331.635
 G_44_39                0.000     70015.311     35158.166
 G_44_40                0.000     70015.311     31984.696
 G_44_41                0.000     70015.311     28811.227
 G_44_42                0.000     70015.311     25637.757
 G_44_43                0.000     70015.311     22464.287
 G_44_44                0.000     70015.311     19290.818
 G_44_45                0.000     70015.311     16117.348
 G_44_46                0.000     70015.311     12943.878
 G_44_47                0.000     70015.311      9770.409
 G_44_48                0.000     70015.311      6596.939
 G_44_49                0.000     70015.311      3423.470
 G_44_50                0.000     70015.311       250.000
 G_45_1              1708.343     71637.760    155750.011
 G_45_2              1621.567     71637.760    152576.541
 G_45_3              1645.128     71637.760    149403.072
 G_45_4              1608.308     71637.760    146229.602
 G_45_5              1673.596     71637.760    143056.133
 G_45_6              1658.203     71637.760    139882.663
 G_45_7              1627.388     71637.760    136709.193
 G_45_8              1704.045     71637.760    133535.724
 G_45_9                 0.000     71637.760    130362.254
 G_45_10                0.000     71637.760    127188.785
 G_45_11                0.000     71637.760    124015.315
 G_45_12                0.000     71637.760    120841.845
 G_45_13                0.000     71637.760    117668.376
 G_45_14                0.000     71637.760    114494.906
 G_45_15                0.000     71637.760    111321.436
 G_45_16                0.000     71637.760    108147.967
 G_45_17                0.000     71637.760    104974.497
 G_45_18                0.000     71637.760    101801.028
 G_45_19                0.000     71637.760     98627.558
 G_45_20                0.000     71637.760     95454.088
 G_45_21                0.000     71637.760     92280.619
 G_45_22                0.000     71637.760     89107.149
 G_45_23                0.000     71637.760     85933.680
 G_45_24                0.000     71637.760     82760.210
 G_45_25                0.000     71637.760     79586.740
 G_45_26                0.000     71637.760     76413.271
 G_45_27                0.000     71637.760     73239.801
 G_45_28                0.000     71637.760     70066.332
 G_45_29                0.000     71637.760     66892.862
 G_45_30                0.000     71637.760     63719.392
 G_45_31                0.000     71637.760     60545.923
 G_45_32                0.000     71637.760     57372.453
 G_45_33                0.000     71637.760     54198.983
 G_45_34                0.000     71637.760     51025.514
 G_45_35                0.000     71637.760     47852.044
 G_45_36                0.000     71637.760     44678.575
 G_45_37                0.000     71637.760     41505.105
 G_45_38                0.000     71637.760     38331.635
 G_45_39                0.000     71637.760     35158.166
 G_45_40                0.000     71637.760     31984.696
 G_45_41                0.000     71637.760     28811.227
 G_45_42                0.000     71637.760     25637.757
 G_45_43                0.000     71637.760     22464.287
 G_45_44                0.000     71637.760     19290.818
 G_45_45                0.000     71637.760     16117.348
 G_45_46                0.000     71637.760     12943.878
 G_45_47                0.000     71637.760      9770.409
 G_45_48                0.000     71637.760      6596.939
 G_45_49                0.000     71637.760      3423.470
 G_45_50                0.000     71637.760       250.000
 G_46_1                 0.000     73260.209    155750.011
 G_46_2              1696.273     73260.209    152576.541
 G_46_3              1664.513     73260.209    149403.072
 G_46_4              1626.199     73260.209    146229.602
 G_46_5              1679.814     73260.209    143056.133
 G_46_6              1648.755     73260.209    139882.663
 G_46_7              1625.925     73260.209    136709.193
 G_46_8              1710.141     73260.209    133535.724
 G_46_9                 0.000     73260.209    130362.254
 G_46_10                0.000     73260.209    127188.785
 G_46_11                0.000     73260.209    124015.315
 G_46_12                0.000     73260.209    120841.845
 G_46_13                0.000     73260.209    117668.376
 G_46_14                0.000     73260.209    114494.906
 G_46_15                0.000     73260.209    111321.436
 G_46_16                0.000     73260.209    108147.967
 G_46_17                0.000     73260.209    104974.497
 G_46_18                0.000     73260.209    101801.028
 G_46_19                0.000     73260.209     98627.558
 G_46_20                0.000     73260.209     95454.088
 G_46_21                0.000     73260.209     92280.619
 G_46_22                0.000     73260.209     89107.149
 G_46_23                0.000     73260.209     85933.680
 G_46_24                0.000     73260.209     82760.210
 G_46_25                0.000     73260.209     79586.740
 G_46_26                0.000     73260.209     76413.271
 G_46_27                0.000     73260.209     73239.801
 G_46_28                0.000     73260.209     70066.332
 G_46_29                0.000     73260.209     66892.862
 G_46_30                0.000     73260.209     63719.392
 G_46_31                0.000     73260.209     60545.923
 G_46_32                0.000     73260.209     57372.453
 G_46_33                0.000     73260.209     54198.983
 G_46_34                0.000     73260.209     51025.514
 G_46_35                0.000     73260.209     47852.044
 G_46_36                0.000     73260.209     44678.575
 G_46_37                0.000     73260.209     41505.105
 G_46_38                0.000     73260.209     38331.635
 G_46_39                0.000     73260.209     35158.166
 G_46_40                0.000     73260.209     31984.696
 G_46_41                0.000     73260.209     28811.227
 G_46_42                0.000     73260.209     25637.757
 G_46_43                0.000     73260.209     22464.287
 G_46_44                0.000     73260.209     19290.818
 G_46_45                0.000     73260.209     16117.348
 G_46_46                0.000     73260.209     12943.878
 G_46_47                0.000     73260.209      9770.409
 G_46_48                0.000     73260.209      6596.939
 G_46_49                0.000     73260.209      3423.470
 G_46_50                0.000     73260.209       250.000
 G_47_1                 0.000     74882.658    155750.011
 G_47_2              1777.289     74882.658    152576.541
 G_47_3              1664.299     74882.658    149403.072
 G_47_4              1663.172     74882.658    146229.602
 G_47_5              1678.259     74882.658    143056.133
 G_47_6              1660.886     74882.658    139882.663
 G_47_7              1634.216     74882.658    136709.193
 G_47_8              1702.674     74882.658    133535.724
 G_47_9                 0.000     74882.658    130362.254
 G_47_10                0.000     74882.658    127188.785
 G_47_11                0.000     74882.658    124015.315
 G_47_12                0.000     74882.658    120841.845
 G_47_13                0.000     74882.658    117668.376
 G_47_14                0.000     74882.658    114494.906
 G_47_15                0.000     74882.658    111321.436
 G_47_16                0.000     74882.658    108147.967
 G_47_17                0.000     74882.658    104974.497
 G_47_18                0.000     74882.658    101801.028
 G_47_19                0.000     74882.658     98627.558
 G_47_20                0.000     74882.658     95454.088
 G_47_21                0.000     74882.658     92280.619
 G_47_22                0.000     74882.658     89107.149
 G_47_23                0.000     74882.658     85933.680
 G_47_24                0.000     74882.658     82760.210
 G_47_25                0.000     74882.658     79586.740
 G_47_26                0.000     74882.658     76413.271
 G_47_27                0.000     74882.658     73239.801
 G_47_28                0.000     74882.658     70066.332
 G_47_29                0.000     74882.658     66892.862
 G_47_30                0.000     74882.658     63719.392
 G_47_31                0.000     74882.658     60545.923
 G_47_32                0.000     74882.658     57372.453
 G_47_33                0.000     74882.658     54198.983
 G_47_34                0.000     74882.658     51025.514
 G_47_35                0.000     74882.658     47852.044
 G_47_36                0.000     74882.658     44678.575
 G_47_37                0.000     74882.658     41505.105
 G_47_38                0.000     74882.658     38331.635
 G_47_39                0.000     74882.658     35158.166
 G_47_40                0.000     74882.658     31984.696
 G_47_41                0.000     74882.658     28811.227
 G_47_42                0.000     74882.658     25637.757
 G_47_43                0.000     74882.658     22464.287
 G_47_44                0.000     74882.658     19290.818
 G_47_45                0.000     74882.658     16117.348
 G_47_46                0.000     74882.658     12943.878
 G_47_47                0.000     74882.658      9770.409
 G_47_48                0.000     74882.658      6596.939
 G_47_49                0.000     74882.658      3423.470
 G_47_50                0.000     74882.658       250.000
 G_48_1                 0.000     76505.107    155750.011
 G_48_2                 0.000     76505.107    152576.541
 G_48_3              1675.211     76505.107    149403.072
 G_48_4              1661.373     76505.107    146229.602
 G_48_5              1689.080     76505.107    143056.133
 G_48_6              1689.049     76505.107    139882.663
 G_48_7              1632.174     76505.107    136709.193
 G_48_8              1698.132     76505.107    133535.724
 G_48_9                 0.000     76505.107    130362.254
 G_48_10                0.000     76505.107    127188.785
 G_48_11                0.000     76505.107    124015.315
 G_48_12                0.000     76505.107    120841.845
 G_48_13                0.000     76505.107    117668.376
 G_48_14                0.000     76505.107    114494.906
 G_48_15                0.000     76505.107    111321.436
 G_48_16                0.000     76505.107    108147.967
 G_48_17                0.000     76505.107    104974.497
 G_48_18                0.000     76505.107    101801.028
 G_48_19                0.000     76505.107     98627.558
 G_48_20                0.000     76505.107     95454.088
 G_48_21                0.000     76505.107     92280.619
 G_48_22                0.000     76505.107     89107.149
 G_48_23                0.000     76505.107     85933.680
 G_48_24                0.000     76505.107     82760.210
 G_48_25                0.000     76505.107     79586.740
 G_48_26                0.000     76505.107     76413.271
 G_48_27                0.000     76505.107     73239.801
 G_48_28                0.000     76505.107     70066.332
 G_48_29                0.000     76505.107     66892.862
 G_48_30                0.000     76505.107     63719.392
 G_48_31                0.000     76505.107     60545.923
 G_48_32                0.000     76505.107     57372.453
 G_48_33                0.000     76505.107     54198.983
 G_48_34                0.000     76505.107     51025.514
 G_48_35                0.000     76505.107     47852.044
 G_48_36                0.000     76505.107     44678.575
 G_48_37                0.000     76505.107     41505.105
 G_48_38                0.000     76505.107     38331.635
 G_48_39                0.000     76505.107     35158.166
 G_48_40                0.000     76505.107     31984.696
 G_48_41                0.000     76505.107     28811.227
 G_48_42                0.000     76505.107     25637.757
 G_48_43                0.000     76505.107     22464.287
 G_48_44                0.000     76505.107     19290.818
 G_48_45                0.000     76505.107     16117.348
 G_48_46                0.000     76505.107     12943.878
 G_48_47                0.000     76505.107      9770.409
 G_48_48                0.000     76505.107      6596.939
 G_48_49                0.000     76505.107      3423.470
 G_48_50                0.000     76505.107       250.000
 G_49_1                 0.000     78127.557    155750.011
 G_49_2                 0.000     78127.557    152576.541
 G_49_3                 0.000     78127.557    149403.072
 G_49_4              1686.093     78127.557    146229.602
 G_49_5              1661.282     78127.557    143056.133
 G_49_6              1700.022     78127.557    139882.663
 G_49_7              1641.439     78127.557    136709.193
 G_49_8              1686.519     78127.557    133535.724
 G_49_9                 0.000     78127.557    130362.254
 G_49_10                0.000     78127.557    127188.785
 G_49_11                0.000     78127.557    124015.315
 G_49_12                0.000     78127.557    120841.845
 G_49_13                0.000     78127.557    117668.376
 G_49_14                0.000     78127.557    114494.906
 G_49_15                0.000     78127.557    111321.436
 G_49_16                0.000     78127.557    108147.967
 G_49_17                0.000     78127.557    104974.497
 G_49_18                0.000     78127.557    101801.028
 G_49_19                0.000     78127.557     98627.558
 G_49_20                0.000     78127.557     95454.088
 G_49_21                0.000     78127.557     92280.619
 G_49_22                0.000     78127.557     89107.149
 G_49_23                0.000     78127.557     85933.680
 G_49_24                0.000     78127.557     82760.210
 G_49_25                0.000     78127.557     79586.740
 G_49_26                0.000     78127.557     76413.271
 G_49_27                0.000     78127.557     73239.801
 G_49_28                0.000     78127.557     70066.332
 G_49_29                0.000     78127.557     66892.862
 G_49_30                0.000     78127.557     63719.392
 G_49_31                0.000     78127.557     60545.923
 G_49_32                0.000     78127.557     57372.453
 G_49_33                0.000     78127.557     54198.983
 G_49_34                0.000     78127.557     51025.514
 G_49_35                0.000     78127.557     47852.044
 G_49_36                0.000     78127.557     44678.575
 G_49_37                0.000     78127.557     41505.105
 G_49_38                0.000     78127.557     38331.635
 G_49_39                0.000     78127.557     35158.166
 G_49_40                0.000     78127.557     31984.696
 G_49_41                0.000     78127.557     28811.227
 G_49_42                0.000     78127.557     25637.757
 G_49_43                0.000     78127.557     22464.287
 G_49_44                0.000     78127.557     19290.818
 G_49_45                0.000     78127.557     16117.348
 G_49_46                0.000     78127.557     12943.878
 G_49_47                0.000     78127.557      9770.409
 G_49_48                0.000     78127.557      6596.939
 G_49_49                0.000     78127.557      3423.470
 G_49_50                0.000     78127.557       250.000
 G_50_1                 0.000     79750.006    155750.011
 G_50_2                 0.000     79750.006    152576.541
 G_50_3                 0.000     79750.006    149403.072
 G_50_4                 0.000     79750.006    146229.602
 G_50_5              1758.940     79750.006    143056.133
 G_50_6              1707.032     79750.006    139882.663
 G_50_7              1684.020     79750.006    136709.193
 G_50_8                 0.000     79750.006    133535.724
 G_50_9                 0.000     79750.006    130362.254
 G_50_10                0.000     79750.006    127188.785
 G_50_11                0.000     79750.006    124015.315
 G_50_12                0.000     79750.006    120841.845
 G_50_13                0.000     79750.006    117668.376
 G_50_14                0.000     79750.006    114494.906
 G_50_15                0.000     79750.006    111321.436
 G_50_16                0.000     79750.006    108147.967
 G_50_17                0.000     79750.006    104974.497
 G_50_18                0.000     79750.006    101801.028
 G_50_19                0.000     79750.006     98627.558
 G_50_20                0.000     79750.006     95454.088
 G_50_21                0.000     79750.006     92280.619
 G_50_22                0.000     79750.006     89107.149
 G_50_23                0.000     79750.006     85933.680
 G_50_24                0.000     79750.006     82760.210
 G_50_25                0.000     79750.006     79586.740
 G_50_26                0.000     79750.006     76413.271
 G_50_27                0.000     79750.006     73239.801
 G_50_28                0.000     79750.006     70066.332
 G_50_29                0.000     79750.006     66892.862
 G_50_30                0.000     79750.006     63719.392
 G_50_31                0.000     79750.006     60545.923
 G_50_32                0.000     79750.006     57372.453
 G_50_33                0.000     79750.006     54198.983
 G_50_34                0.000     79750.006     51025.514
 G_50_35                0.000     79750.006     47852.044
 G_50_36                0.000     79750.006     44678.575
 G_50_37                0.000     79750.006     41505.105
 G_50_38                0.000     79750.006     38331.635
 G_50_39                0.000     79750.006     35158.166
 G_50_40                0.000     79750.006     31984.696
 G_50_41                0.000     79750.006     28811.227
 G_50_42                0.000     79750.006     25637.757
 G_50_43                0.000     79750.006     22464.287
 G_50_44                0.000     79750.006     19290.818
 G_50_45                0.000     79750.006     16117.348
 G_50_46                0.000     79750.006     12943.878
 G_50_47                0.000     79750.006      9770.409
 G_50_48                0.000     79750.006      6596.939
 G_50_49                0.000     79750.006      3423.470
 G_50_50                0.000     79750.006       250.000
   
 NORMAL TERMINATION OF HEAVY SIMULATION
